Version 4
SHEET 1 1592 680
WIRE 480 -96 416 -96
WIRE 608 -96 560 -96
WIRE 1072 -96 992 -96
WIRE 1232 -96 1152 -96
WIRE -544 -48 -544 -96
WIRE 80 -16 64 -16
WIRE 160 -16 144 -16
WIRE 512 48 512 16
WIRE 64 64 64 -16
WIRE 64 64 -176 64
WIRE 320 64 64 64
WIRE 416 64 416 -96
WIRE 416 64 400 64
WIRE 496 64 416 64
WIRE 1088 64 1088 32
WIRE 608 80 608 -96
WIRE 608 80 560 80
WIRE 832 80 608 80
WIRE 992 80 992 -96
WIRE 992 80 912 80
WIRE 1072 80 992 80
WIRE -544 96 -624 96
WIRE 160 96 160 -16
WIRE 160 96 -48 96
WIRE 256 96 160 96
WIRE 416 96 336 96
WIRE 496 96 416 96
WIRE 1232 96 1232 -96
WIRE 1232 96 1136 96
WIRE -624 112 -624 96
WIRE -544 112 -544 96
WIRE 1072 112 1024 112
WIRE -176 128 -176 64
WIRE -48 128 -48 96
WIRE 416 128 416 96
WIRE 1232 128 1232 96
WIRE 64 144 64 64
WIRE 160 144 160 96
WIRE 512 160 512 112
WIRE 1088 176 1088 128
WIRE 1024 192 1024 112
WIRE -544 224 -544 192
WIRE -176 224 -176 208
WIRE -48 224 -48 208
FLAG -544 32 0
FLAG -624 112 0
FLAG -544 224 N5V0
FLAG -544 -96 5V0
FLAG 512 16 5V0
FLAG 512 160 N5V0
FLAG -176 224 0
FLAG 416 208 0
FLAG -48 224 0
FLAG 160 224 0
FLAG 64 224 0
FLAG 1088 32 5V0
FLAG 1088 176 N5V0
FLAG 1024 192 0
FLAG 1232 208 0
SYMBOL voltage -544 -64 R0
WINDOW 123 0 0 Left 0
WINDOW 39 0 0 Left 0
SYMATTR InstName V1
SYMATTR Value 5
SYMBOL voltage -544 96 R0
WINDOW 123 0 0 Left 0
WINDOW 39 0 0 Left 0
SYMATTR InstName V2
SYMATTR Value 5
SYMBOL res 576 -112 R90
WINDOW 0 0 56 VBottom 2
WINDOW 3 32 56 VTop 2
SYMATTR InstName R4
SYMATTR Value 499
SYMBOL current -176 208 R180
WINDOW 3 35 38 Left 2
WINDOW 123 0 0 Left 0
WINDOW 39 0 0 Left 0
SYMATTR Value SINE(10M 10M 1Meg)
SYMATTR InstName I3
SYMBOL res 416 48 R90
WINDOW 0 1 108 VBottom 2
WINDOW 3 -26 61 VTop 2
SYMATTR InstName R1
SYMATTR Value 226
SYMBOL res 352 80 R90
WINDOW 0 58 99 VBottom 2
WINDOW 3 32 56 VTop 2
SYMATTR InstName R2
SYMATTR Value 226
SYMBOL res 400 112 R0
SYMATTR InstName R3
SYMATTR Value 499
SYMBOL current -48 208 R180
WINDOW 3 -124 -71 Left 2
WINDOW 123 0 0 Left 0
WINDOW 39 0 0 Left 0
SYMATTR Value SINE(10M 10M 1Meg 0 0 180)
SYMATTR InstName I1
SYMBOL res 144 128 R0
SYMATTR InstName R6
SYMATTR Value 25
SYMBOL res 48 128 R0
SYMATTR InstName R7
SYMATTR Value 25
SYMBOL cap 144 -32 R90
WINDOW 0 0 32 VBottom 2
WINDOW 3 32 32 VTop 2
SYMATTR InstName C1
SYMATTR Value 5p
SYMBOL res 928 64 R90
WINDOW 0 0 56 VBottom 2
WINDOW 3 32 56 VTop 2
SYMATTR InstName R8
SYMATTR Value 100
SYMBOL res 1168 -112 R90
WINDOW 0 0 56 VBottom 2
WINDOW 3 32 56 VTop 2
SYMATTR InstName R9
SYMATTR Value 499
SYMBOL res 1216 112 R0
SYMATTR InstName R10
SYMATTR Value 50K
SYMBOL OpAmps\\ADA4857 1104 96 R0
SYMATTR InstName U2
SYMBOL OpAmps\\ADA4857 528 80 R0
SYMATTR InstName U1
TEXT -608 392 Left 2 !.tran .001s
TEXT 8 336 Left 2 ;DIFFERENTIAL TO SINGLE ENDED OUTPUT AT +/- 1V
TEXT 696 288 Left 2 ;INVERTING BUFFER /W 5X GAIN (R9 SHOULD BE A DIFFERENTIAL POT)
TEXT 352 448 Left 2 ;WILL PROBABLY REPLACE THE OP AMPS WITH AD8009
