Version 4
SHEET 1 880 680
WIRE -48 -256 -448 -256
WIRE -48 -224 -48 -256
WIRE -240 -160 -320 -160
WIRE -448 -128 -448 -256
WIRE -320 -128 -320 -160
WIRE -240 -80 -240 -160
WIRE -176 -80 -240 -80
WIRE 464 -80 192 -80
WIRE -112 112 -112 64
WIRE 16 112 16 64
FLAG -112 112 0
FLAG 16 112 0
FLAG -448 -48 0
FLAG -320 -48 0
FLAG 464 0 0
SYMBOL DAC\\AD5770R -16 -80 R0
SYMATTR InstName U1
SYMBOL voltage -448 -144 R0
WINDOW 123 0 0 Left 0
WINDOW 39 0 0 Left 0
SYMATTR InstName V1
SYMATTR Value 3.3
SYMBOL voltage -320 -144 R0
WINDOW 123 0 0 Left 0
WINDOW 39 0 0 Left 0
SYMATTR InstName V2
SYMATTR Value 3.3
SYMBOL res 448 -96 R0
SYMATTR InstName R1
SYMATTR Value 50R
TEXT -208 232 Left 2 !.tran 1s startup
TEXT -296 -296 Left 2 ;ADDED AD5770R TO BE SIMILAR TO AD9744.
